@<TRIPOS>MOLECULE
HEM.pdb
 73 80 0 0 0
SMALL
GASTEIGER

@<TRIPOS>ATOM
      1 FE1         0.0000    0.0000    0.0000 Fe      1  HEM1        0.0000
      2  N1         2.0220    0.0000    0.0000 N.2     1  HEM1        0.0000
      3  N2        -0.0010    0.0000   -2.0300 N.ar    1  HEM1        0.0000
      4  N3        -2.0230    0.1300   -0.0220 N.2     1  HEM1        0.0000
      5  N4         0.0090    0.1950    1.9980 N.ar    1  HEM1        0.0000
      6  C1         1.0970    0.0670   -2.8480 C.ar    1  HEM1        0.0000
      7  C2         0.6900    0.0220   -4.2500 C.ar    1  HEM1        0.0000
      8  C3         1.5890    0.2020   -5.4370 C.3     1  HEM1        0.0000
      9  C4         0.9700    1.1160   -6.5070 C.3     1  HEM1        0.0000
     10  C5         0.5890    0.4010   -7.8340 C.2     1  HEM1        0.0000
     11  C6         2.8460    0.0320   -1.0970 C.2     1  HEM1        0.0000
     12  C7         4.2470   -0.0180   -0.6840 C.2     1  HEM1        0.0000
     13  C8         5.4450    0.0110   -1.5890 C.3     1  HEM1        0.0000
     14  C9         5.8740    1.4310   -2.0290 C.3     1  HEM1        0.0000
     15  C10        7.0670    1.4140   -3.0200 C.2     1  HEM1        0.0000
     16  C11        4.2380   -0.0710    0.6860 C.2     1  HEM1        0.0000
     17  C12        2.8420   -0.0470    1.0950 C.2     1  HEM1        0.0000
     18  C13        5.3990   -0.1200    1.6330 C.3     1  HEM1        0.0000
     19  C14        1.0910    0.1120    2.8320 C.ar    1  HEM1        0.0000
     20  C15        0.6710    0.2320    4.2250 C.ar    1  HEM1        0.0000
     21  C16        1.5790    0.1620    5.3610 C.2     1  HEM1        0.0000
     22  C17        1.3700    0.6530    6.5950 C.2     1  HEM1        0.0000
     23  C18       -0.7000    0.3890    4.2020 C.ar    1  HEM1        0.0000
     24  C19       -1.0910    0.3660    2.8070 C.ar    1  HEM1        0.0000
     25  C20       -1.6360    0.5130    5.3640 C.3     1  HEM1        0.0000
     26  C21       -2.8440    0.3610    1.0510 C.2     1  HEM1        0.0000
     27  C22       -4.2440    0.3740    0.6230 C.2     1  HEM1        0.0000
     28  C23       -5.4300    0.6200    1.4360 C.2     1  HEM1        0.0000
     29  C24       -5.5470    1.4610    2.4760 C.2     1  HEM1        0.0000
     30  C25       -4.2330    0.0920   -0.7260 C.2     1  HEM1        0.0000
     31  C26       -2.8420   -0.0240   -1.1120 C.2     1  HEM1        0.0000
     32  C27       -5.3930   -0.0300   -1.6650 C.3     1  HEM1        0.0000
     33  C28        2.4170    0.0910   -2.4170 C.2     1  HEM1        0.0000
     34  C29       -2.4090   -0.1820   -2.4270 C.2     1  HEM1        0.0000
     35  C30       -2.4090    0.4600    2.3670 C.2     1  HEM1        0.0000
     36  C31        2.4120   -0.0140    2.4140 C.2     1  HEM1        0.0000
     37  C32       -0.6720   -0.1240   -4.2480 C.ar    1  HEM1        0.0000
     38  C33       -1.0910   -0.1260   -2.8560 C.ar    1  HEM1        0.0000
     39  C34       -1.5940   -0.2160   -5.4260 C.3     1  HEM1        0.0000
     40  O1         0.0240   -0.7200   -7.7050 O.co2   1  HEM1        0.0000
     41  O2         7.0770    0.5210   -3.9090 O.co2   1  HEM1        0.0000
     42  O3         0.8970    0.9800   -8.9130 O.co2   1  HEM1        0.0000
     43  O4         7.9320    2.3180   -2.8320 O.co2   1  HEM1        0.0000
     44  H1        -6.3220    0.0740    1.1280 H       1  HEM1        0.0000
     45  H2         2.5260   -0.3440    5.1770 H       1  HEM1        0.0000
     46  H3         6.2790   -0.4780   -1.0720 H       1  HEM1        0.0000
     47  H4         5.2560   -0.5650   -2.5010 H       1  HEM1        0.0000
     48  H5         1.6550    1.9400   -6.7380 H       1  HEM1        0.0000
     49  H6         0.0600    1.5870   -6.1050 H       1  HEM1        0.0000
     50  H7        -4.7270    2.0870    2.8160 H       1  HEM1        0.0000
     51  H8        -6.4890    1.5630    3.0060 H       1  HEM1        0.0000
     52  H9         0.4760    1.2080    6.8600 H       1  HEM1        0.0000
     53  H10        2.1140    0.5250    7.3760 H       1  HEM1        0.0000
     54  H11        6.1980    1.9790   -1.1330 H       1  HEM1        0.0000
     55  H12        5.0220    1.9690   -2.4580 H       1  HEM1        0.0000
     56  H13       -1.0300   -0.3570   -6.3520 H       1  HEM1        0.0000
     57  H14       -2.1980    0.6940   -5.5440 H       1  HEM1        0.0000
     58  H15       -2.2950   -1.0540   -5.3290 H       1  HEM1        0.0000
     59  H16       -5.3950    0.7750   -2.4120 H       1  HEM1        0.0000
     60  H17       -6.3460    0.0160   -1.1320 H       1  HEM1        0.0000
     61  H18       -5.3600   -0.9780   -2.2140 H       1  HEM1        0.0000
     62  H19       -2.6290    0.1180    5.1270 H       1  HEM1        0.0000
     63  H20       -1.7680    1.5580    5.6790 H       1  HEM1        0.0000
     64  H21       -1.2510   -0.0350    6.2300 H       1  HEM1        0.0000
     65  H22        5.3180   -0.9650    2.3280 H       1  HEM1        0.0000
     66  H23        5.4600    0.7900    2.2440 H       1  HEM1        0.0000
     67  H24        6.3460   -0.2180    1.0960 H       1  HEM1        0.0000
     68  H25       -3.1740   -0.2920   -3.1890 H       1  HEM1        0.0000
     69  H26        2.5480    0.6340   -5.1380 H       1  HEM1        0.0000
     70  H27        1.8120   -0.7650   -5.9010 H       1  HEM1        0.0000
     71  H28        3.1870    0.1370   -3.1790 H       1  HEM1        0.0000
     72  H29        3.1780   -0.0420    3.1810 H       1  HEM1        0.0000
     73  H30       -3.1710    0.5730    3.1260 H       1  HEM1        0.0000
@<TRIPOS>BOND
     1    42    10   ar
     2    10    40   ar
     3    10     9    1
     4    48     9    1
     5     9    49    1
     6     9     8    1
     7    56    39    1
     8    70     8    1
     9    57    39    1
    10     8    69    1
    11     8     7    1
    12    39    58    1
    13    39    37    1
    14     7    37   ar
    15     7     6   ar
    16    37    38   ar
    17    41    15   ar
    18    68    34    1
    19    71    33    1
    20    15    43   ar
    21    15    14    1
    22    38    34    2
    23    38     3   ar
    24     6    33    2
    25     6     3   ar
    26    47    13    1
    27    55    14    1
    28    34    31    1
    29    33    11    1
    30    59    32    1
    31    61    32    1
    32     3     1    1
    33    14    13    1
    34    14    54    1
    35    32    60    1
    36    32    30    1
    37    13    46    1
    38    13    12    1
    39    31    30    1
    40    31     4    2
    41    11    12    1
    42    11     2    2
    43    30    27    2
    44    12    16    2
    45     4     1    1
    46     4    26    1
    47     2     1    1
    48     2    17    1
    49     1     5    1
    50    27    26    1
    51    27    28    1
    52    16    17    1
    53    16    18    1
    54    26    35    2
    55    17    36    2
    56    67    18    1
    57    44    28    1
    58    28    29    2
    59    18    66    1
    60    18    65    1
    61     5    24   ar
    62     5    19   ar
    63    35    24    1
    64    35    73    1
    65    36    19    1
    66    36    72    1
    67    29    50    1
    68    29    51    1
    69    24    23   ar
    70    19    20   ar
    71    23    20   ar
    72    23    25    1
    73    20    21    1
    74    62    25    1
    75    45    21    1
    76    21    22    2
    77    25    63    1
    78    25    64    1
    79    22    52    1
    80    22    53    1
